reports/poster/ias2026/research/validation_runs/cross_tool_final/pack_tapside/results/pandapower_branch_flows.csv
idx,from_bus,to_bus,P_from_MW,Q_from_Mvar,P_to_MW,Q_to_Mvar
0.0,1.0,2.0,34.38112564384134,-38.68816285642844,-34.34350359623622,-37.63930633112719
1.0,1.0,39.0,-34.38112564384112,38.688162856428775,34.449965622975796,-117.99137913523575
2.0,2.0,3.0,482.481484501892,81.21109987720186,-479.6170740347189,-75.70735003461311
3.0,2.0,25.0,-12.051595905654041,15.574267135245751,12.096336564846478,-31.52910089843658
4.0,3.0,4.0,-44.64440782163169,-117.8376981929357,44.806653606585556,96.4756510955093
5.0,3.0,18.0,-75.73851814365145,-56.454951772456425,75.81904930644163,34.58693959693291
6.0,4.0,5.0,-235.9949498486318,-143.70183149995898,236.53094504145537,137.13632589697698
7.0,4.0,14.0,-258.81170375795136,-25.93456421710836,259.2975785090376,18.383103279988696
8.0,5.0,6.0,-485.27706933744844,-23.113676305897542,485.68802303916027,23.466242805798856
9.0,5.0,8.0,248.74612429600043,115.60818952277597,-248.20772365232187,-124.78910484795959
10.0,6.0,7.0,370.4945518527452,129.8123242001675,-369.68235210085226,-130.2080341618054
11.0,6.0,11.0,-290.1825768919093,40.2403006012337,290.7086992595202,-50.04562228877934
12.0,7.0,8.0,135.88235210085082,46.2080341617893,-135.80746547246713,-54.08345492441872
13.0,8.0,9.0,-137.9848108752078,2.2725597723916167,138.3881673878906,-38.24596149431322
14.0,9.0,39.0,-138.38816738788958,38.24596149431645,138.6598899116745,-161.63602630076045
15.0,10.0,11.0,352.1181659977622,-31.845658746281657,-351.6835661295336,28.148060169685756
16.0,10.0,13.0,372.8818320022422,75.72180007173196,-372.3752111693425,-78.61097103657659
17.0,13.0,14.0,313.24071152527523,67.53513105414746,-312.4178334415665,-77.74335713164598
18.0,14.0,15.0,53.12025493252811,59.360253851661355,-52.972269435426576,-97.8427956436861
19.0,15.0,16.0,-267.02773056457215,-55.1572043563063,267.63830430790506,42.910395648840066
20.0,16.0,17.0,302.965780756226,16.43659379151535,-302.3760011216702,-23.595774467839078
21.0,16.0,19.0,-471.0973969295321,-52.748411866196435,474.35589082569135,58.5771284302826
22.0,16.0,21.0,-364.01908174422675,37.3026318973119,365.0053676403177,-48.51524391453814
23.0,16.0,24.0,-64.4876063903756,-76.20120947147828,64.51336366794258,69.2235333851115
24.0,17.0,18.0,234.19648126634794,54.73934878917103,-233.8190493064418,-64.58693959692746
25.0,17.0,27.0,68.17951985532349,-31.143574321336096,-68.12177140221033,-3.1382859158379226
26.0,21.0,22.0,-639.0053676403177,-66.48475608546144,642.0214606049634,90.88352216421278
27.0,22.0,23.0,44.978537395036184,68.10292907730337,-44.93482232261124,-87.98536038096297
28.0,23.0,24.0,375.92144604796545,-18.234133823845234,-373.11336366794023,22.97646661488946
29.0,25.0,26.0,84.81729922184451,-66.78583380746602,-84.56340867366087,12.632229557213874
30.0,26.0,27.0,213.5046158386942,52.49656371140301,-212.87822859778916,-72.36171408416247
31.0,26.0,28.0,-109.35343721327256,-38.87290312767267,109.81511606656453,-43.380811571803875
32.0,26.0,29.0,-158.58776995176112,-43.25589014094699,159.88279853013432,-57.83864489654596
33.0,28.0,29.0,-315.8151160665646,15.780811571806353,317.0693395383596,-30.244784537891086
34.0,2.0,30.0,-436.0863850000007,-59.1460606813214,436.0863850000007,92.69564784066256
35.0,31.0,6.0,565.9999980000005,271.2143544052402,-565.9999980000006,-193.51886760719745
36.0,10.0,32.0,-724.9999979999994,-43.87614132545443,724.9999979999997,149.0825743634619
37.0,12.0,11.0,-60.91636438050253,-20.307025685473448,60.97486687001539,21.897562119105224
38.0,12.0,13.0,-59.08363561949779,-9.692974314527419,59.13449964406448,11.075839982428548
39.0,19.0,20.0,174.63146286004647,10.352812619989386,-174.41903257522148,-6.1649012905838525
40.0,19.0,33.0,-648.9873536857372,-68.92994105026824,651.9999980000002,130.0435828538833
41.0,20.0,34.0,-505.5809674247789,-96.83509870942204,507.9999980000004,145.21571021385358
42.0,22.0,35.0,-686.9999980000001,-158.98645124152367,686.999998,225.5269369155038
43.0,23.0,36.0,-578.4866237253549,21.619494204802493,579.9999979999999,60.70806633588985
44.0,25.0,37.0,-320.91363578669205,51.11493470590331,321.5213380000002,-27.617115791331727
45.0,29.0,38.0,-760.4521380684932,-38.81657056556121,764.7833809999996,123.27580772993787
